<?xml version="1.0" encoding="UTF-8"?>

<!-- generated on 2022-01-06 14:07:43 by Eclipse SUMO polyconvert Version 1.11.0
<configuration xmlns:xsi="http://www.w3.org/2001/XMLSchema-instance" xsi:noNamespaceSchemaLocation="http://sumo.dlr.de/xsd/polyconvertConfiguration.xsd">

    <input>
        <net-file value="osm.net.xml"/>
        <osm-files value="osm_bbox.osm.xml"/>
        <osm.keep-full-type value="true"/>
        <type-file value="/usr/share/sumo/data/typemap/osmPolyconvert.typ.xml"/>
    </input>

    <output>
        <output-file value="osm.poly.xml"/>
    </output>

    <processing>
        <poi-layer-offset value="5"/>
    </processing>

    <report>
        <verbose value="true"/>
    </report>

</configuration>
-->

<additional xmlns:xsi="http://www.w3.org/2001/XMLSchema-instance" xsi:noNamespaceSchemaLocation="http://sumo.dlr.de/xsd/additional_file.xsd">
    <location netOffset="-687922.78,-4963139.23" convBoundary="-3333.34,-1043.29,5554.12,6566.73" origBoundary="-0.666469,44.788391,-0.553892,44.854999" projParameter="+proj=utm +zone=30 +ellps=WGS84 +datum=WGS84 +units=m +no_defs"/>

    <poly id="1001473257" type="amenity.parking" color="184,184,179" fill="1" layer="-1.00" shape="2969.219633,1156.690532 2983.297936,1150.649085 2976.126692,1134.937209 2962.209258,1138.759805 2969.219633,1156.690532"/>
    <poly id="105591336" type="leisure.park" color="207,245,201" fill="1" layer="-2.00" shape="1225.763563,1292.183473 1281.432950,1284.205371 1281.408556,1282.614769 1283.629309,1273.318750 1273.549831,1258.134861 1273.318693,1257.383145 1260.454356,1259.094565 1260.799325,1253.023141 1287.275299,1249.488915 1292.375617,1122.515139 1302.235164,1119.103161 1342.030438,1161.589928 1369.608991,1200.170401 1389.003369,1232.839662 1385.562203,1238.152781 1383.061944,1249.408438 1384.928434,1268.797764 1396.237041,1309.411751 1387.717382,1334.243115 1339.106577,1316.745444 1327.687173,1339.267845 1327.298820,1339.823428 1263.617138,1334.734941 1229.487462,1329.149473 1224.895445,1323.555323 1226.282101,1315.435486 1226.784389,1298.372930 1225.763563,1292.183473"/>
    <poly id="136175631" type="amenity.place_of_worship" color="237,199,199" fill="1" layer="-1.00" shape="2314.380236,1947.596321 2322.570344,1948.694962 2325.119794,1935.562057 2326.184701,1930.067855 2317.782723,1928.907345 2316.809406,1934.248606 2314.380236,1947.596321"/>
    <poly id="136175631#1" type="building.church" color="255,230,230" fill="1" layer="-1.00" shape="2314.380236,1947.596321 2322.570344,1948.694962 2325.119794,1935.562057 2326.184701,1930.067855 2317.782723,1928.907345 2316.809406,1934.248606 2314.380236,1947.596321"/>
    <poly id="161738330" type="building.yes" color="255,230,230" fill="1" layer="-1.00" shape="1190.065306,1998.063737 1191.955851,1995.673416 1200.872258,2001.939672 1203.678358,1998.019779 1210.663801,2002.672671 1206.369037,2008.772347 1202.876319,2006.445903 1202.464620,2006.989686 1196.807008,2002.931798 1193.420671,2000.486192 1190.065306,1998.063737"/>
    <poly id="161738349" type="building.yes" color="255,230,230" fill="1" layer="-1.00" shape="1258.601664,1981.848078 1259.761541,1982.771682 1264.335059,1986.019434 1261.598171,1990.274884 1257.100453,1987.140547 1254.801446,1989.963544 1245.894883,1983.363959 1249.106182,1979.122473 1254.725232,1983.145917 1256.546407,1984.455892 1258.601664,1981.848078"/>
    <poly id="161738351" type="building.yes" color="255,230,230" fill="1" layer="-1.00" shape="1069.642487,1967.614064 1072.644511,1970.481898 1070.516795,1972.865274 1072.052439,1974.466981 1066.584821,1980.087516 1065.118444,1978.821389 1060.461141,1983.798684 1059.386844,1982.655274 1057.667557,1984.605946 1055.588228,1982.654707 1069.642487,1967.614064"/>
    <poly id="161738406" type="building.yes" color="255,230,230" fill="1" layer="-1.00" shape="1259.761541,1982.771682 1260.173247,1982.227903 1252.189346,1976.544928 1254.340030,1973.384019 1256.386258,1974.845156 1270.927294,1985.212953 1269.352994,1987.612566 1271.834153,1989.353351 1270.763715,1990.767175 1264.335059,1986.019434 1259.761541,1982.771682"/>
    <poly id="161738412" type="building.yes" color="255,230,230" fill="1" layer="-1.00" shape="1158.402325,1957.996094 1152.464066,1966.159864 1153.007748,1966.509408 1150.610095,1969.996621 1144.491076,1965.480481 1146.885457,1962.104350 1149.442457,1963.958498 1151.336265,1961.457082 1149.708489,1960.297366 1153.591526,1954.741439 1158.402325,1957.996094"/>
    <poly id="161738419" type="building.yes" color="255,230,230" fill="1" layer="-1.00" shape="1081.513182,1997.203808 1087.638746,2001.497719 1082.530530,2008.351801 1078.418289,2005.562477 1077.341362,2007.198502 1078.810999,2008.353546 1076.499008,2011.620943 1073.167656,2009.188138 1076.797049,2004.180611 1076.408238,2003.946810 1081.513182,1997.203808"/>
    <poly id="161738440" type="building.yes" color="255,230,230" fill="1" layer="-1.00" shape="1120.851997,1948.552420 1120.232511,1948.089467 1117.599696,1946.121920 1116.746268,1945.540903 1113.184220,1942.878930 1112.175920,1942.182175 1116.194192,1937.408471 1126.722192,1945.389748 1124.755857,1947.666676 1122.789524,1949.943604 1120.851997,1948.552420"/>
    <poly id="161738491" type="building.yes" color="255,230,230" fill="1" layer="-1.00" shape="1239.659993,2006.973046 1241.983011,2008.709163 1240.830243,2010.231749 1240.112076,2010.432963 1239.453352,2011.303012 1230.467736,2004.701119 1233.349653,2000.894651 1235.078804,1998.610771 1236.087083,1999.307545 1236.834691,1998.106571 1242.960159,2002.400633 1239.659993,2006.973046"/>
    <poly id="161738512" type="building.yes" color="255,230,230" fill="1" layer="-1.00" shape="1196.119207,1916.079407 1206.806603,1899.828114 1208.358586,1900.874432 1210.512540,1897.602424 1212.456606,1898.771467 1210.021710,1902.446571 1209.508673,1902.131279 1201.640486,1914.018335 1202.184169,1914.367883 1200.191636,1917.533465 1199.611979,1918.405845 1196.119207,1916.079407"/>
    <poly id="161738530" type="building.yes" color="255,230,230" fill="1" layer="-1.00" shape="1062.817179,1930.612496 1067.288881,1934.635368 1067.908371,1935.098315 1061.363795,1942.354881 1059.132848,1940.176820 1062.324430,1936.601751 1059.780467,1934.303301 1056.570784,1937.955665 1055.686434,1938.963629 1048.970705,1933.207046 1055.693022,1925.288613 1062.487825,1931.047529 1062.817179,1930.612496"/>
    <poly id="161738567" type="building.yes" color="255,230,230" fill="1" layer="-1.00" shape="1249.205699,1935.431359 1254.411820,1938.697730 1248.529591,1947.641335 1247.442235,1946.942230 1246.121502,1948.793412 1247.287929,1949.494844 1251.014604,1951.939382 1244.467119,1961.975207 1235.142258,1956.141587 1239.196599,1950.146028 1242.424262,1945.349117 1249.205699,1935.431359"/>
    <poly id="161738571" type="building.yes" color="255,230,230" fill="1" layer="-1.00" shape="1065.929261,1884.008206 1070.836280,1875.925202 1080.550217,1881.992375 1078.221845,1885.815194 1076.641062,1888.437021 1078.278674,1889.263464 1079.701315,1886.636985 1083.045805,1888.625452 1080.542951,1892.999040 1077.201730,1890.899489 1070.516015,1886.811477 1065.929261,1884.008206"/>
    <poly id="161738574" type="building.yes" color="255,230,230" fill="1" layer="-1.00" shape="1151.424360,2001.484719 1147.376672,2007.258162 1146.635621,2008.236977 1146.091943,2007.887434 1142.126602,2013.552122 1139.101743,2011.461845 1138.775658,2011.785790 1135.984736,2009.813580 1140.197091,2003.822616 1143.455892,2006.030959 1148.165560,1999.276372 1151.424360,2001.484719"/>
    <poly id="161738597" type="building.yes" color="255,230,230" fill="1" layer="-1.00" shape="1298.315456,1971.566118 1296.967778,1970.570267 1289.020101,1964.732659 1288.380451,1962.267841 1289.286212,1961.071530 1290.993035,1962.233611 1296.351813,1954.942336 1300.305863,1957.727143 1298.563589,1960.455345 1301.120549,1962.309554 1297.734707,1967.101779 1300.051183,1969.060086 1298.315456,1971.566118"/>
    <poly id="161738630" type="building.yes" color="255,230,230" fill="1" layer="-1.00" shape="1259.215776,2003.991141 1256.412914,2007.799926 1257.187252,2008.378634 1255.191660,2011.110503 1253.810721,2010.169272 1247.919205,2005.993268 1250.148947,2002.834687 1238.493380,1994.453093 1234.184441,1991.357686 1236.661204,1987.872831 1243.017350,1992.396047 1256.036080,2001.785066 1259.215776,2003.991141"/>
    <poly id="161738663" type="building.yes" color="255,230,230" fill="1" layer="-1.00" shape="1072.823529,1975.156750 1076.749609,1970.825034 1079.059609,1973.005428 1075.703358,1976.798005 1080.089412,1981.040730 1071.753040,1990.023456 1070.280765,1991.647851 1067.275482,1988.891101 1068.747758,1987.266706 1070.220034,1985.642312 1066.750134,1982.538352 1073.288143,1975.503961 1072.823529,1975.156750"/>
    <poly id="161738694" type="building.yes" color="255,230,230" fill="1" layer="-1.00" shape="1078.991128,1865.047057 1079.412629,1864.170013 1077.702476,1863.119075 1080.198802,1858.967656 1077.015705,1856.872758 1079.838123,1852.397390 1086.912690,1856.719211 1084.416359,1860.870628 1089.780762,1864.141514 1087.870612,1867.198370 1086.938100,1866.615031 1085.521988,1869.019340 1078.991128,1865.047057"/>
    <poly id="161738696" type="building.yes" color="255,230,230" fill="1" layer="-1.00" shape="1054.074871,1964.154212 1043.788560,1974.858501 1041.317142,1972.784552 1043.438311,1970.623336 1042.512345,1969.817835 1048.714452,1963.440622 1044.634843,1959.540477 1045.695430,1958.459869 1050.929102,1952.721254 1056.484901,1957.554274 1054.927017,1959.398515 1056.851482,1961.234017 1054.074871,1964.154212"/>
    <poly id="161738698" type="building.yes" color="255,230,230" fill="1" layer="-1.00" shape="1202.645155,1928.279045 1204.387394,1925.550818 1204.855276,1925.786955 1208.099276,1920.434604 1212.377740,1914.890350 1211.679186,1914.425061 1215.575386,1908.424831 1219.077968,1910.418028 1217.171036,1913.363763 1217.714719,1913.713312 1216.469789,1915.677912 1206.605799,1930.841624 1202.645155,1928.279045"/>
    <poly id="161738712" type="building.yes" color="255,230,230" fill="1" layer="-1.00" shape="1139.478321,2001.355487 1136.763195,1999.496688 1132.168571,2005.031681 1123.667069,1998.110650 1127.197825,1993.767329 1128.047976,1994.459432 1130.593940,1991.310119 1131.216690,1991.661988 1135.728983,1986.235751 1142.414552,1990.323836 1143.995341,1987.702025 1147.484819,1990.139520 1139.478321,2001.355487"/>
    <poly id="161738719" type="building.yes" color="255,230,230" fill="1" layer="-1.00" shape="1147.558953,1939.220954 1145.921968,1941.062847 1142.676210,1938.410165 1144.724894,1936.024486 1141.561472,1933.263047 1142.714228,1931.740445 1141.864069,1931.048340 1145.720960,1926.381083 1146.880862,1927.304666 1149.347789,1924.153032 1155.763511,1929.344992 1149.037799,1937.374408 1147.558953,1939.220954"/>
    <poly id="161738749" type="building.yes" color="255,230,230" fill="1" layer="-1.00" shape="1029.078951,1990.658184 1032.757980,1986.652718 1033.248736,1986.111250 1035.021593,1987.719926 1028.318965,1994.971872 1027.702746,1994.397844 1026.638900,1995.589538 1031.799328,2000.410909 1030.333600,2001.813144 1023.397050,2008.947033 1017.778543,2003.556293 1025.953413,1994.679932 1029.464497,1991.003066 1029.078951,1990.658184"/>
    <poly id="161738755" type="building.yes" color="255,230,230" fill="1" layer="-1.00" shape="992.389377,1997.695292 989.384066,1994.938581 996.422527,1987.029390 997.269426,1987.832560 1002.509565,1981.871738 1003.056519,1982.110185 1003.636143,1981.237787 1004.796053,1982.161344 1004.219696,1982.922657 1004.608511,1983.156453 999.124628,1989.332466 999.582711,1989.901840 993.453215,1996.503592 992.389377,1997.695292"/>
    <poly id="161738770" type="building.yes" color="255,230,230" fill="1" layer="-1.00" shape="977.939723,1972.365941 981.294984,1975.333062 982.721190,1976.620223 984.032039,1975.102243 985.751304,1973.151551 991.063386,1978.199707 990.816377,1978.525985 987.387647,1982.094112 984.117059,1985.666891 981.655428,1983.259713 976.593048,1988.558694 970.895415,1983.165672 970.993407,1979.833138 977.939723,1972.365941"/>
    <poly id="161738775" type="building.yes" color="255,230,230" fill="1" layer="-1.00" shape="998.075240,2008.869377 997.782617,2008.593938 989.530475,2000.724273 992.389377,1997.695292 993.453215,1996.503592 995.380951,1998.227992 997.996115,1995.414206 997.386426,1994.618012 999.685314,1991.794927 1002.153469,1993.979943 999.620640,1996.684968 1003.166364,1999.902300 1008.320896,1994.161327 1010.172827,1995.772321 1003.387900,2003.133051 998.075240,2008.869377"/>
    <poly id="161738803" type="building.yes" color="255,230,230" fill="1" layer="-1.00" shape="1208.828077,1984.384982 1202.234691,1979.854817 1198.824295,1977.419619 1200.807001,1974.587291 1204.214127,1977.133575 1205.775322,1975.178285 1209.650325,1977.960707 1212.207301,1979.814881 1213.939720,1977.419911 1216.001503,1974.589916 1226.305197,1982.120041 1222.346310,1987.562513 1219.087524,1985.354129 1218.178508,1986.661534 1210.893126,1981.443901 1208.828077,1984.384982"/>
    <poly id="161738841" type="building.yes" color="255,230,230" fill="1" layer="-1.00" shape="1200.191636,1917.533465 1202.184169,1914.367883 1202.681485,1913.604259 1203.376769,1914.180632 1208.837442,1906.114023 1207.984016,1905.532994 1210.021710,1902.446571 1212.456606,1898.771467 1214.166730,1899.822442 1212.348680,1902.437253 1214.609028,1903.615609 1209.869793,1911.369911 1210.726488,1911.839856 1207.327612,1917.076464 1208.032706,1917.319584 1205.796418,1920.700349 1203.690946,1919.637737 1200.191636,1917.533465"/>
    <poly id="161738957" type="building.yes" color="255,230,230" fill="1" layer="-1.00" shape="1268.785266,1966.582674 1267.388731,1968.320438 1261.032576,1963.797199 1262.198442,1961.830279 1268.785266,1966.582674"/>
    <poly id="161738964" type="building.yes" color="255,230,230" fill="1" layer="-1.00" shape="1086.036463,1926.848387 1087.917182,1924.791290 1094.197688,1929.200942 1092.465304,1931.595944 1086.036463,1926.848387"/>
    <poly id="161738986" type="building.yes" color="255,230,230" fill="1" layer="-1.00" shape="1120.891087,1861.165593 1122.475163,1858.432692 1125.196893,1860.069313 1123.533745,1862.799887 1120.891087,1861.165593"/>
    <poly id="161739000" type="building.yes" color="255,230,230" fill="1" layer="-1.00" shape="1142.414552,1990.323836 1135.728983,1986.235751 1137.869797,1983.408059 1143.995341,1987.702025 1142.414552,1990.323836"/>
    <poly id="161739015" type="building.yes" color="255,230,230" fill="1" layer="-1.00" shape="1157.523614,1947.519247 1147.558953,1939.220954 1149.037799,1937.374408 1158.926660,1945.559291 1157.523614,1947.519247"/>
    <poly id="161739025" type="building.yes" color="255,230,230" fill="1" layer="-1.00" shape="1169.564584,1974.001126 1167.914521,1976.287351 1164.892921,1974.085977 1166.542984,1971.799752 1169.564584,1974.001126"/>
    <poly id="161739037" type="building.yes" color="255,230,230" fill="1" layer="-1.00" shape="999.750596,1976.120392 1003.106800,1972.327777 1004.645727,1973.818383 1001.216986,1977.386503 999.750596,1976.120392"/>
    <poly id="161739047" type="building.yes" color="255,230,230" fill="1" layer="-1.00" shape="1301.120549,1962.309554 1298.563589,1960.455345 1300.305863,1957.727143 1303.020964,1959.586012 1301.120549,1962.309554"/>
    <poly id="161739061" type="building.yes" color="255,230,230" fill="1" layer="-1.00" shape="1254.725232,1983.145917 1256.664175,1980.456852 1258.601664,1981.848078 1256.546407,1984.455892 1254.725232,1983.145917"/>
    <poly id="161739089" type="building.yes" color="255,230,230" fill="1" layer="-1.00" shape="1124.693227,1847.602262 1130.762728,1851.116292 1129.435475,1853.189665 1123.527387,1849.569205 1124.693227,1847.602262"/>
    <poly id="161739104" type="building.yes" color="255,230,230" fill="1" layer="-1.00" shape="1094.294982,1936.652906 1097.759751,1931.862905 1101.400881,1934.527196 1097.857041,1939.314869 1094.294982,1936.652906"/>
    <poly id="161739115" type="building.yes" color="255,230,230" fill="1" layer="-1.00" shape="1131.965757,1939.317944 1137.785709,1932.484842 1140.415256,1934.563482 1134.516232,1941.394255 1131.965757,1939.317944"/>
    <poly id="161739127" type="building.yes" color="255,230,230" fill="1" layer="-1.00" shape="1114.657826,1989.618161 1118.451940,1984.393140 1124.030545,1988.448630 1120.236429,1993.673647 1114.657826,1989.618161"/>
    <poly id="161739182" type="building.yes" color="255,230,230" fill="1" layer="-1.00" shape="1256.202201,1961.208971 1259.457717,1963.528459 1257.886689,1965.816990 1254.631173,1963.497503 1256.202201,1961.208971"/>
    <poly id="161739213" type="building.yes" color="255,230,230" fill="1" layer="-1.00" shape="1138.080807,1868.675834 1143.679346,1858.611979 1146.638286,1860.255591 1140.805799,1870.201378 1138.080807,1868.675834"/>
    <poly id="161739226" type="building.yes" color="255,230,230" fill="1" layer="-1.00" shape="1134.369509,1962.514261 1136.352189,1959.681914 1144.642677,1965.707304 1142.663264,1968.428564 1134.369509,1962.514261"/>
    <poly id="161739243" type="building.yes" color="255,230,230" fill="1" layer="-1.00" shape="1104.401087,1936.650081 1106.322855,1934.004940 1110.972282,1937.365990 1109.027119,1939.999323 1104.401087,1936.650081"/>
    <poly id="161739267" type="building.yes" color="255,230,230" fill="1" layer="-1.00" shape="1005.495893,1974.510470 1008.845568,1970.940026 1013.234934,1975.071620 1009.885259,1978.642061 1005.495893,1974.510470"/>
    <poly id="161739285" type="building.yes" color="255,230,230" fill="1" layer="-1.00" shape="1013.725659,1961.077305 1015.444937,1959.126621 1017.603356,1961.080172 1015.805008,1963.028530 1013.725659,1961.077305"/>
    <poly id="161739314" type="building.yes" color="255,230,230" fill="1" layer="-1.00" shape="1076.641062,1888.437021 1078.221845,1885.815194 1079.701315,1886.636985 1078.278674,1889.263464 1076.641062,1888.437021"/>
    <poly id="161739337" type="building.yes" color="255,230,230" fill="1" layer="-1.00" shape="1254.340030,1973.384019 1256.233878,1970.882632 1258.171371,1972.273859 1256.386258,1974.845156 1254.340030,1973.384019"/>
    <poly id="161739454" type="building.yes" color="255,230,230" fill="1" layer="-1.00" shape="1120.271310,1930.635249 1117.954769,1928.677009 1121.073857,1924.877472 1123.469470,1926.838040 1120.271310,1930.635249"/>
    <poly id="161739527" type="building.yes" color="255,230,230" fill="1" layer="-1.00" shape="1116.407463,1919.403484 1122.882861,1911.811392 1128.207974,1916.415324 1121.656771,1923.894000 1120.969715,1923.306761 1117.874172,1920.658513 1116.407463,1919.403484"/>
    <poly id="161739540" type="building.yes" color="255,230,230" fill="1" layer="-1.00" shape="1080.157631,1949.133903 1088.154274,1938.251119 1093.113451,1941.843630 1085.034465,1952.835167 1080.157631,1949.133903"/>
    <poly id="161739555" type="building.yes" color="255,230,230" fill="1" layer="-1.00" shape="1046.944730,2002.079403 1041.553443,1997.573652 1044.560906,1994.337820 1049.727858,1998.937037 1046.944730,2002.079403"/>
    <poly id="161739557" type="building.yes" color="255,230,230" fill="1" layer="-1.00" shape="1074.361238,1861.019526 1077.015705,1856.872758 1080.198802,1858.967656 1077.702476,1863.119075 1074.361238,1861.019526"/>
    <poly id="161739588" type="building.yes" color="255,230,230" fill="1" layer="-1.00" shape="1158.926660,1945.559291 1149.037799,1937.374408 1155.763511,1929.344992 1165.111964,1937.069255 1158.926660,1945.559291"/>
    <poly id="161739592" type="building.yes" color="255,230,230" fill="1" layer="-1.00" shape="1048.894087,1984.236674 1056.986686,1975.469109 1058.835343,1977.191201 1050.666941,1985.845353 1048.894087,1984.236674"/>
    <poly id="161739600" type="building.yes" color="255,230,230" fill="1" layer="-1.00" shape="1158.129476,1975.332250 1159.450178,1973.481052 1166.429138,1978.356062 1165.108435,1980.207259 1158.129476,1975.332250"/>
    <poly id="161739616" type="building.yes" color="255,230,230" fill="1" layer="-1.00" shape="1181.957870,1880.974151 1188.650068,1884.840112 1185.916465,1888.984508 1179.227540,1885.007466 1181.957870,1880.974151"/>
    <poly id="161739620" type="building.yes" color="255,230,230" fill="1" layer="-1.00" shape="1028.628718,1968.297650 1031.640561,1970.832211 1026.235711,1977.010527 1023.306206,1974.367209 1028.628718,1968.297650"/>
    <poly id="161739628" type="building.yes" color="255,230,230" fill="1" layer="-1.00" shape="1162.977614,1910.100708 1159.578777,1915.337341 1155.766437,1913.112700 1159.168542,1907.764981 1162.977614,1910.100708"/>
    <poly id="161739633" type="building.yes" color="255,230,230" fill="1" layer="-1.00" shape="1289.286212,1961.071530 1294.724059,1953.782583 1296.351813,1954.942336 1290.993035,1962.233611 1289.286212,1961.071530"/>
    <poly id="161739635" type="building.yes" color="255,230,230" fill="1" layer="-1.00" shape="1009.758431,1958.737015 1008.039154,1960.687701 1006.651831,1959.423914 1008.450177,1957.475554 1009.758431,1958.737015"/>
    <poly id="161739655" type="building.yes" color="255,230,230" fill="1" layer="-1.00" shape="1135.633274,1884.613817 1140.220000,1887.417138 1139.222111,1889.055480 1134.720994,1886.032318 1135.633274,1884.613817"/>
    <poly id="161739674" type="building.yes" color="255,230,230" fill="1" layer="-1.00" shape="1056.570784,1937.955665 1059.780467,1934.303301 1062.324430,1936.601751 1059.132848,1940.176820 1056.570784,1937.955665"/>
    <poly id="161739700" type="building.yes" color="255,230,230" fill="1" layer="-1.00" shape="1145.852925,1999.875390 1142.745722,1997.893869 1146.302647,1992.661882 1149.406582,1994.754490 1145.852925,1999.875390"/>
    <poly id="161739720" type="building.yes" color="255,230,230" fill="1" layer="-1.00" shape="1117.780962,1974.923040 1121.583467,1977.480913 1116.060235,1984.989842 1112.419140,1982.325542 1117.780962,1974.923040"/>
    <poly id="161739776" type="building.yes" color="255,230,230" fill="1" layer="-1.00" shape="1068.615037,1997.157875 1069.932440,1995.417743 1071.866694,1996.919997 1070.549291,1998.660128 1068.615037,1997.157875"/>
    <poly id="161739789" type="building.yes" color="255,230,230" fill="1" layer="-1.00" shape="1253.450718,1990.146129 1257.167553,1992.923924 1255.929166,1994.666347 1252.133263,1991.886224 1253.450718,1990.146129"/>
    <poly id="161739793" type="building.yes" color="255,230,230" fill="1" layer="-1.00" shape="1093.337076,1856.241145 1090.429042,1860.936350 1086.465042,1858.484930 1089.369805,1853.900808 1093.337076,1856.241145"/>
    <poly id="161739799" type="building.yes" color="255,230,230" fill="1" layer="-1.00" shape="1016.156541,1945.694706 1022.618722,1938.546854 1028.705174,1944.173719 1022.322060,1951.323891 1016.156541,1945.694706"/>
    <poly id="161739817" type="building.yes" color="255,230,230" fill="1" layer="-1.00" shape="1172.322525,1931.388921 1168.449267,1936.611584 1166.432675,1935.218058 1170.062180,1930.210580 1172.322525,1931.388921"/>
    <poly id="161739850" type="building.yes" color="255,230,230" fill="1" layer="-1.00" shape="1022.225367,1973.445975 1027.630215,1967.267655 1028.628718,1968.297650 1023.306206,1974.367209 1022.225367,1973.445975"/>
    <poly id="161739859" type="building.yes" color="255,230,230" fill="1" layer="-1.00" shape="1169.044361,1916.394216 1175.446702,1905.909324 1181.898394,1909.879380 1175.578386,1920.255509 1169.044361,1916.394216"/>
    <poly id="161739864" type="building.yes" color="255,230,230" fill="1" layer="-1.00" shape="1247.287929,1949.494844 1246.121502,1948.793412 1247.442235,1946.942230 1248.529591,1947.641335 1247.287929,1949.494844"/>
    <poly id="161739878" type="building.yes" color="255,230,230" fill="1" layer="-1.00" shape="1116.449065,1885.716978 1113.651542,1883.966949 1114.399138,1882.765961 1117.272463,1884.629402 1116.449065,1885.716978"/>
    <poly id="161739941" type="building.yes" color="255,230,230" fill="1" layer="-1.00" shape="1120.232511,1948.089467 1116.517447,1953.316814 1113.805563,1951.346942 1117.599696,1946.121920 1120.232511,1948.089467"/>
    <poly id="161740061" type="building.yes" color="255,230,230" fill="1" layer="-1.00" shape="1195.509777,1931.404404 1197.918447,1932.920663 1195.846850,1936.083917 1193.589782,1934.794484 1195.509777,1931.404404"/>
    <poly id="161740087" type="building.yes" color="255,230,230" fill="1" layer="-1.00" shape="1221.686848,1969.642995 1213.396431,1963.617504 1216.472470,1958.593755 1225.490875,1964.084781 1221.686848,1969.642995"/>
    <poly id="161740107" type="building.yes" color="255,230,230" fill="1" layer="-1.00" shape="1003.625577,1951.996998 1004.545016,1953.024663 1002.259182,1955.403410 1001.336476,1954.486830 1003.625577,1951.996998"/>
    <poly id="161740115" type="building.yes" color="255,230,230" fill="1" layer="-1.00" shape="1159.426837,1898.989310 1164.323287,1902.024127 1163.246323,1903.660138 1158.590355,1900.521219 1159.426837,1898.989310"/>
    <poly id="161740131" type="building.yes" color="255,230,230" fill="1" layer="-1.00" shape="1222.306325,1970.105958 1226.943573,1963.126928 1229.276424,1964.529786 1224.474493,1971.726327 1222.306325,1970.105958"/>
    <poly id="161740139" type="building.yes" color="255,230,230" fill="1" layer="-1.00" shape="1116.271809,1846.020281 1110.508776,1842.848825 1112.003973,1840.446848 1117.687937,1843.615978 1116.271809,1846.020281"/>
    <poly id="161740236" type="building.yes" color="255,230,230" fill="1" layer="-1.00" shape="982.721190,1976.620223 981.294984,1975.333062 982.644715,1973.838461 984.032039,1975.102243 982.721190,1976.620223"/>
    <poly id="161740246" type="building.yes" color="255,230,230" fill="1" layer="-1.00" shape="1140.623880,1924.785724 1138.383144,1922.940888 1139.288881,1921.744557 1141.608688,1923.591720 1140.623880,1924.785724"/>
    <poly id="161740254" type="building.yes" color="255,230,230" fill="1" layer="-1.00" shape="1103.967649,1900.548099 1106.528467,1897.432566 1109.312911,1899.626930 1106.450643,1902.766946 1103.967649,1900.548099"/>
    <poly id="161740269" type="building.yes" color="255,230,230" fill="1" layer="-1.00" shape="1091.350770,1899.543137 1095.177595,1893.207257 1098.450587,1895.204748 1093.683672,1900.945944 1091.350770,1899.543137"/>
    <poly id="161740276" type="building.yes" color="255,230,230" fill="1" layer="-1.00" shape="1073.447287,1924.365570 1075.229958,1925.641003 1073.023158,1928.022052 1071.401896,1926.640187 1073.447287,1924.365570"/>
    <poly id="161740288" type="building.yes" color="255,230,230" fill="1" layer="-1.00" shape="1117.874172,1920.658513 1120.969715,1923.306761 1119.894338,1924.620401 1116.806703,1921.972387 1117.874172,1920.658513"/>
    <poly id="161740292" type="building.yes" color="255,230,230" fill="1" layer="-1.00" shape="1066.649706,1948.291776 1062.181281,1944.157819 1069.381295,1936.142273 1074.011130,1940.169802 1066.649706,1948.291776"/>
    <poly id="161740326" type="building.yes" color="255,230,230" fill="1" layer="-1.00" shape="1214.851056,1941.090641 1210.735551,1938.412317 1215.046712,1931.757220 1219.323632,1934.329119 1214.851056,1941.090641"/>
    <poly id="161740333" type="building.yes" color="255,230,230" fill="1" layer="-1.00" shape="1044.506112,1958.536065 1041.576605,1955.892739 1043.385811,1953.844645 1047.225232,1949.499244 1050.309612,1952.258309 1044.506112,1958.536065"/>
    <poly id="161740350" type="building.yes" color="255,230,230" fill="1" layer="-1.00" shape="1209.650325,1977.960707 1211.382743,1975.565737 1213.939720,1977.419911 1212.207301,1979.814881 1209.650325,1977.960707"/>
    <poly id="161740363" type="building.yes" color="255,230,230" fill="1" layer="-1.00" shape="1186.161349,1923.680095 1179.172530,1919.138319 1187.702665,1906.270098 1194.694764,1910.700799 1186.161349,1923.680095"/>
    <poly id="161740375" type="building.yes" color="255,230,230" fill="1" layer="-1.00" shape="1138.799164,1898.048665 1139.299743,1897.173952 1142.565140,1899.160124 1142.064561,1900.034837 1138.799164,1898.048665"/>
    <poly id="161740378" type="building.yes" color="255,230,230" fill="1" layer="-1.00" shape="1272.376042,1933.334187 1270.310951,1936.275250 1266.435946,1933.492791 1268.171668,1930.986750 1272.376042,1933.334187"/>
    <poly id="161740391" type="building.yes" color="255,230,230" fill="1" layer="-1.00" shape="1105.303132,1842.250929 1106.801597,1839.737866 1108.828039,1840.798118 1107.329574,1843.311181 1105.303132,1842.250929"/>
    <poly id="161740434" type="building.yes" color="255,230,230" fill="1" layer="-1.00" shape="1113.184220,1942.878930 1116.746268,1945.540903 1114.440775,1948.586118 1110.872190,1946.146314 1113.184220,1942.878930"/>
    <poly id="161740465" type="building.yes" color="255,230,230" fill="1" layer="-1.00" shape="1275.732510,1961.784143 1279.124881,1956.769739 1282.920796,1959.549877 1279.452625,1964.450867 1275.732510,1961.784143"/>
    <poly id="161740467" type="building.yes" color="255,230,230" fill="1" layer="-1.00" shape="1094.465831,1906.639168 1103.744021,1895.238203 1106.528467,1897.432566 1103.967649,1900.548099 1097.253543,1908.722443 1094.465831,1906.639168"/>
    <poly id="161740526" type="building.yes" color="255,230,230" fill="1" layer="-1.00" shape="1039.111714,1953.596623 1040.831002,1951.645945 1043.385811,1953.844645 1041.576605,1955.892739 1039.111714,1953.596623"/>
    <poly id="161740571" type="building.yes" color="255,230,230" fill="1" layer="-1.00" shape="1215.013598,1992.016206 1212.543390,1995.278900 1197.201550,1984.153870 1199.592683,1980.888843 1215.013598,1992.016206"/>
    <poly id="161740577" type="building.yes" color="255,230,230" fill="1" layer="-1.00" shape="1001.314880,1947.148280 1002.869483,1945.415111 1005.495798,1947.604779 1003.941194,1949.337948 1001.314880,1947.148280"/>