<?xml version="1.0" encoding="UTF-8"?>

<!-- generated on 2021-12-15 16:35:30 by Eclipse SUMO netconvert Version 1.10.0
<configuration xmlns:xsi="http://www.w3.org/2001/XMLSchema-instance" xsi:noNamespaceSchemaLocation="http://sumo.dlr.de/xsd/netconvertConfiguration.xsd">

    <input>
        <osm-files value="map.osm"/>
    </input>

    <output>
        <output-file value="map.net.xml"/>
    </output>

    <projection>
        <proj.utm value="true"/>
    </projection>

    <processing>
        <geometry.remove value="true"/>
        <roundabouts.guess value="true"/>
    </processing>

    <tls_building>
        <tls.discard-simple value="true"/>
        <tls.join value="true"/>
        <tls.guess-signals value="true"/>
    </tls_building>

    <ramp_guessing>
        <ramps.guess value="true"/>
    </ramp_guessing>

    <junctions>
        <junctions.join value="true"/>
    </junctions>

    <report>
        <aggregate-warnings value="5"/>
    </report>

</configuration>
-->

<net version="1.9" junctionCornerDetail="5" limitTurnSpeed="5.50" xmlns:xsi="http://www.w3.org/2001/XMLSchema-instance" xsi:noNamespaceSchemaLocation="http://sumo.dlr.de/xsd/net_file.xsd">

    <location netOffset="-689138.02,-4963597.34" convBoundary="0.00,0.00,1239.02,824.94" origBoundary="-0.608509,44.800736,-0.592608,44.808056" projParameter="+proj=utm +zone=30 +ellps=WGS84 +datum=WGS84 +units=m +no_defs"/>

    <type id="highway.bridleway" priority="1" numLanes="1" speed="2.78" allow="pedestrian" oneway="1" width="2.00"/>
    <type id="highway.bus_guideway" priority="1" numLanes="1" speed="27.78" allow="bus" oneway="1"/>
    <type id="highway.cycleway" priority="1" numLanes="1" speed="8.33" allow="bicycle" oneway="0" width="1.00"/>
    <type id="highway.footway" priority="1" numLanes="1" speed="2.78" allow="pedestrian" oneway="1" width="2.00"/>
    <type id="highway.ford" priority="1" numLanes="1" speed="2.78" allow="army" oneway="0"/>
    <type id="highway.living_street" priority="2" numLanes="1" speed="2.78" disallow="tram rail_urban rail rail_electric rail_fast ship" oneway="0"/>
    <type id="highway.motorway" priority="14" numLanes="2" speed="39.44" allow="private emergency authority army vip passenger hov taxi bus coach delivery truck trailer motorcycle evehicle custom1 custom2" oneway="1"/>
    <type id="highway.motorway_link" priority="9" numLanes="1" speed="22.22" allow="private emergency authority army vip passenger hov taxi bus coach delivery truck trailer motorcycle evehicle custom1 custom2" oneway="1"/>
    <type id="highway.path" priority="1" numLanes="1" speed="2.78" allow="pedestrian bicycle" oneway="0" width="2.00"/>
    <type id="highway.pedestrian" priority="1" numLanes="1" speed="2.78" allow="pedestrian" oneway="1" width="2.00"/>
    <type id="highway.primary" priority="12" numLanes="2" speed="27.78" disallow="tram rail_urban rail rail_electric rail_fast ship" oneway="0"/>
    <type id="highway.primary_link" priority="7" numLanes="1" speed="22.22" disallow="tram rail_urban rail rail_electric rail_fast ship" oneway="0"/>
    <type id="highway.raceway" priority="15" numLanes="2" speed="83.33" allow="vip" oneway="0"/>
    <type id="highway.residential" priority="3" numLanes="1" speed="13.89" disallow="tram rail_urban rail rail_electric rail_fast ship" oneway="0"/>
    <type id="highway.secondary" priority="11" numLanes="1" speed="27.78" disallow="tram rail_urban rail rail_electric rail_fast ship" oneway="0"/>
    <type id="highway.secondary_link" priority="6" numLanes="1" speed="22.22" disallow="tram rail_urban rail rail_electric rail_fast ship" oneway="0"/>
    <type id="highway.service" priority="1" numLanes="1" speed="5.56" allow="pedestrian delivery bicycle" oneway="0"/>
    <type id="highway.stairs" priority="1" numLanes="1" speed="1.39" allow="pedestrian" oneway="1" width="2.00"/>
    <type id="highway.step" priority="1" numLanes="1" speed="1.39" allow="pedestrian" oneway="1" width="2.00"/>
    <type id="highway.steps" priority="1" numLanes="1" speed="1.39" allow="pedestrian" oneway="1" width="2.00"/>
    <type id="highway.tertiary" priority="10" numLanes="1" speed="22.22" disallow="tram rail_urban rail rail_electric rail_fast ship" oneway="0"/>
    <type id="highway.tertiary_link" priority="5" numLanes="1" speed="22.22" disallow="tram rail_urban rail rail_electric rail_fast ship" oneway="0"/>
    <type id="highway.track" priority="1" numLanes="1" speed="5.56" allow="pedestrian motorcycle moped bicycle" oneway="0"/>
    <type id="highway.trunk" priority="13" numLanes="2" speed="27.78" disallow="pedestrian bicycle tram rail_urban rail rail_electric rail_fast ship" oneway="0"/>
    <type id="highway.trunk_link" priority="8" numLanes="1" speed="22.22" disallow="pedestrian bicycle tram rail_urban rail rail_electric rail_fast ship" oneway="0"/>
    <type id="highway.unclassified" priority="4" numLanes="1" speed="13.89" disallow="tram rail_urban rail rail_electric rail_fast ship" oneway="0"/>
    <type id="highway.unsurfaced" priority="1" numLanes="1" speed="8.33" disallow="tram rail_urban rail rail_electric rail_fast ship" oneway="0"/>
    <type id="railway.highspeed" priority="21" numLanes="1" speed="69.44" allow="rail_fast" oneway="1"/>
    <type id="railway.light_rail" priority="19" numLanes="1" speed="27.78" allow="rail_urban" oneway="1"/>
    <type id="railway.preserved" priority="16" numLanes="1" speed="27.78" allow="rail" oneway="1"/>
    <type id="railway.rail" priority="20" numLanes="1" speed="44.44" allow="rail" oneway="1"/>
    <type id="railway.subway" priority="18" numLanes="1" speed="27.78" allow="rail_urban" oneway="1"/>
    <type id="railway.tram" priority="17" numLanes="1" speed="13.89" allow="tram" oneway="1"/>

    <edge id=":244131760_0" function="internal">
        <lane id=":244131760_0_0" index="0" allow="tram" speed="13.19" length="0.30" shape="473.31,597.24 473.59,597.35"/>
    </edge>
    <edge id=":2518636227_0" function="internal">
        <lane id=":2518636227_0_0" index="0" allow="bicycle" speed="10.63" length="5.59" shape="630.46,577.19 630.04,578.80 629.75,579.95 629.73,581.07 630.13,582.64"/>
    </edge>
    <edge id=":2518636227_1" function="internal">
        <lane id=":2518636227_1_0" index="0" disallow="tram rail_urban rail rail_electric rail_fast ship" speed="22.22" length="5.68" shape="627.73,577.47 629.08,582.99"/>
    </edge>
    <edge id=":2518636228_0" function="internal">
        <lane id=":2518636228_0_0" index="0" allow="bicycle" speed="8.49" length="4.72" width="1.00" shape="620.35,585.15 619.94,583.85 619.43,583.05 618.68,582.39 617.58,581.51"/>
    </edge>
    <edge id=":2518636228_1" function="internal">
        <lane id=":2518636228_1_0" index="0" disallow="tram rail_urban rail rail_electric rail_fast ship" speed="22.22" length="4.81" shape="621.42,584.90 620.23,580.24"/>
    </edge>
    <edge id=":2518636229_0" function="internal">
        <lane id=":2518636229_0_0" index="0" disallow="tram rail_urban rail rail_electric rail_fast ship" speed="22.22" length="5.28" shape="629.67,584.77 631.46,589.73"/>
    </edge>
    <edge id=":2518636230_0" function="internal">
        <lane id=":2518636230_0_0" index="0" disallow="tram rail_urban rail rail_electric rail_fast ship" speed="22.22" length="5.34" shape="622.69,592.16 622.55,590.58 622.42,589.50 622.22,588.44 621.87,586.89"/>
    </edge>
    <edge id=":2518636233_0" function="internal">
        <lane id=":2518636233_0_0" index="0" disallow="tram rail_urban rail rail_electric rail_fast ship" speed="8.33" length="5.49" shape="670.09,604.81 668.54,605.29 667.50,605.71 666.53,606.26 665.17,607.16"/>
    </edge>
    <edge id=":2518636237_0" function="internal">
        <lane id=":2518636237_0_0" index="0" allow="bicycle" speed="11.96" length="4.97" shape="617.18,654.95 618.32,654.01 619.10,653.34 619.72,652.55 620.37,651.25"/>
    </edge>
    <edge id=":2518636237_1" function="internal">
        <lane id=":2518636237_1_0" index="0" disallow="tram rail_urban rail rail_electric rail_fast ship" speed="27.78" length="4.98" shape="619.58,656.32 621.38,651.68"/>
    </edge>
    <edge id=":2518636238_0" function="internal">
        <lane id=":2518636238_0_0" index="0" allow="bicycle" speed="11.11" length="5.37" width="1.00" shape="631.50,656.57 630.97,658.04 630.85,659.12 630.98,660.24 631.18,661.83"/>
    </edge>
    <edge id=":2518636238_1" function="internal">
        <lane id=":2518636238_1_0" index="0" disallow="tram rail_urban rail rail_electric rail_fast ship" speed="13.89" length="5.43" shape="630.49,656.13 628.51,661.18"/>
    </edge>
    <edge id=":2518667362_0" function="internal">
        <lane id=":2518667362_0_0" index="0" allow="pedestrian bicycle" speed="5.02" length="4.57" width="1.00" shape="599.14,741.15 598.98,742.25 599.26,743.21 599.99,744.04 601.16,744.73"/>
    </edge>
    <edge id=":2518667362_1" function="internal">
        <lane id=":2518667362_1_0" index="0" allow="pedestrian bicycle" speed="8.33" length="9.43" width="1.00" shape="592.54,740.92 601.16,744.73"/>
    </edge>
    <edge id=":2518791359_0" function="internal">
        <lane id=":2518791359_0_0" index="0" allow="pedestrian bicycle" speed="2.04" length="1.46" width="1.00" shape="0.37,0.17 0.48,-0.27 0.67,-0.47 0.95,-0.44 1.31,-0.17"/>
    </edge>
    <edge id=":2555905743_0" function="internal">
        <lane id=":2555905743_0_0" index="0" allow="pedestrian bicycle" speed="4.17" length="2.30" shape="426.54,512.31 426.38,512.96 426.41,513.44 426.45,513.92 426.32,514.58"/>
    </edge>
    <edge id=":2555905743_1" function="internal">
        <lane id=":2555905743_1_0" index="0" allow="pedestrian bicycle" speed="4.17" length="2.44" width="2.00" shape="423.30,513.54 423.62,512.90 423.97,512.54 424.34,512.18 424.69,511.56"/>
    </edge>
    <edge id=":2555905743_2" function="internal">
        <lane id=":2555905743_2_0" index="0" allow="pedestrian delivery bicycle" speed="3.65" length="1.82" shape="423.30,513.54 424.44,512.66 424.82,512.61"/>
    </edge>
    <edge id=":2555905743_3" function="internal">
        <lane id=":2555905743_3_0" index="0" allow="pedestrian delivery bicycle" speed="3.65" length="2.85" shape="424.82,512.61 425.33,512.54 425.96,513.18 426.32,514.58"/>
    </edge>
    <edge id=":2555905754_0" function="internal">
        <lane id=":2555905754_0_0" index="0" disallow="tram rail_urban rail rail_electric rail_fast ship" speed="27.78" length="3.10" shape="659.21,615.57 659.28,616.49 659.31,617.12 659.30,617.75 659.26,618.67"/>
    </edge>
    <edge id=":2555905754_1" function="internal">
        <lane id=":2555905754_1_0" index="0" allow="tram" speed="11.11" length="6.87" shape="655.84,617.89 662.57,616.52"/>
    </edge>
    <edge id=":2555905757_0" function="internal">
        <lane id=":2555905757_0_0" index="0" disallow="tram rail_urban rail rail_electric rail_fast ship" speed="19.07" length="5.62" shape="623.23,647.34 623.85,645.80 624.16,644.70 624.29,643.56 624.39,641.89"/>
    </edge>
    <edge id=":2555905758_0" function="internal">
        <lane id=":2555905758_0_0" index="0" disallow="tram rail_urban rail rail_electric rail_fast ship" speed="13.89" length="5.23" shape="634.99,646.73 634.20,648.07 633.69,649.00 633.22,649.96 632.59,651.37"/>
    </edge>
    <edge id=":2734747979_0" function="internal">
        <lane id=":2734747979_0_0" index="0" disallow="tram rail_urban rail rail_electric rail_fast ship" speed="3.65" length="4.67" shape="363.36,333.98 364.56,333.20 365.46,333.14 366.04,333.83 366.30,335.24"/>
    </edge>
    <edge id=":2734748042_0" function="internal">
        <lane id=":2734748042_0_0" index="0" disallow="tram rail_urban rail rail_electric rail_fast ship" speed="13.89" length="5.36" shape="515.11,496.62 510.13,494.62"/>
    </edge>
    <edge id=":2734748042_1" function="internal">
        <lane id=":2734748042_1_0" index="0" disallow="tram rail_urban rail rail_electric rail_fast ship" speed="3.65" length="2.34" shape="515.11,496.62 514.29,495.42 514.22,494.53"/>
    </edge>
    <edge id=":2734748042_4" function="internal">
        <lane id=":2734748042_4_0" index="0" disallow="tram rail_urban rail rail_electric rail_fast ship" speed="3.65" length="2.34" shape="514.22,494.53 514.89,493.94 516.30,493.65"/>
    </edge>
    <edge id=":2734748042_2" function="internal">
        <lane id=":2734748042_2_0" index="0" disallow="tram rail_urban rail rail_electric rail_fast ship" speed="13.89" length="5.37" shape="511.32,491.65 516.30,493.65"/>
    </edge>
    <edge id=":2734748042_3" function="internal">
        <lane id=":2734748042_3_0" index="0" disallow="tram rail_urban rail rail_electric rail_fast ship" speed="3.65" length="2.34" shape="511.32,491.65 512.14,492.84 512.21,493.73"/>
    </edge>
    <edge id=":2734748042_5" function="internal">
        <lane id=":2734748042_5_0" index="0" disallow="tram rail_urban rail rail_electric rail_fast ship" speed="3.65" length="2.34" shape="512.21,493.73 511.54,494.32 510.13,494.62"/>
    </edge>
    <edge id=":279121814_0" function="internal">
        <lane id=":279121814_0_0" index="0" disallow="tram rail_urban rail rail_electric rail_fast ship" speed="16.94" length="6.84" shape="623.69,637.68 623.36,635.66 623.27,634.22 622.95,632.88 621.95,631.18"/>
    </edge>
    <edge id=":279121814_1" function="internal">
        <lane id=":279121814_1_0" index="0" disallow="tram rail_urban rail rail_electric rail_fast ship" speed="27.78" length="6.78" shape="627.06,635.57 625.45,634.36 624.28,633.58 623.23,632.71 621.95,631.18"/>
    </edge>
    <edge id=":279121815_0" function="internal">
        <lane id=":279121815_0_0" index="0" disallow="tram rail_urban rail rail_electric rail_fast ship" speed="27.78" length="4.34" shape="619.48,627.35 618.91,626.20 618.58,625.39 618.32,624.54 617.97,623.30"/>
    </edge>
    <edge id=":279121815_1" function="internal">
        <lane id=":279121815_1_0" index="0" allow="tram" speed="11.11" length="6.91" shape="615.48,626.47 622.28,625.19"/>
    </edge>
    <edge id=":279121816_0" function="internal">
        <lane id=":279121816_0_0" index="0" allow="pedestrian delivery bicycle" speed="8.97" length="8.14" shape="617.92,623.11 617.08,620.81 616.05,618.97 614.81,617.58 613.37,616.63"/>
    </edge>
    <edge id=":279121816_1" function="internal">
        <lane id=":279121816_1_0" index="0" disallow="tram rail_urban rail rail_electric rail_fast ship" speed="15.23" length="8.09" shape="617.92,623.11 617.27,620.80 616.98,619.17 617.03,617.52 617.39,615.16"/>
    </edge>
    <edge id=":279121817_0" function="internal">
        <lane id=":279121817_0_0" index="0" disallow="tram rail_urban rail rail_electric rail_fast ship" speed="25.00" length="1.92" shape="618.85,603.19 619.94,601.61"/>
    </edge>
    <edge id=":279121817_1" function="internal">
        <lane id=":279121817_1_0" index="0" disallow="tram rail_urban rail rail_electric rail_fast ship" speed="27.78" length="1.90" shape="621.50,604.98 621.84,604.54 622.12,604.27 622.43,604.04 622.86,603.67"/>
    </edge>
    <edge id=":279121818_0" function="internal">
        <lane id=":279121818_0_0" index="0" disallow="tram rail_urban rail rail_electric rail_fast ship" speed="9.97" length="8.43" shape="632.24,591.26 633.92,592.89 635.52,593.40 637.40,593.44 639.93,593.64"/>
    </edge>
    <edge id=":279121818_1" function="internal">
        <lane id=":279121818_1_0" index="0" disallow="tram rail_urban rail rail_electric rail_fast ship" speed="27.78" length="6.10" shape="633.38,597.43 635.17,597.13 636.40,596.81 637.62,596.64 639.39,596.80"/>
    </edge>
    <edge id=":279121820_0" function="internal">
        <lane id=":279121820_0_0" index="0" disallow="tram rail_urban rail rail_electric rail_fast ship" speed="18.06" length="4.62" shape="648.09,595.79 649.35,596.33 650.18,596.77 650.97,597.28 652.11,598.04"/>
    </edge>
    <edge id=":279121820_1" function="internal">
        <lane id=":279121820_1_0" index="0" disallow="tram rail_urban rail rail_electric rail_fast ship" speed="27.78" length="3.88" shape="646.87,598.75 647.93,599.20 648.62,599.57 649.27,600.03 650.18,600.74"/>
    </edge>
    <edge id=":279121821_0" function="internal">
        <lane id=":279121821_0_0" index="0" disallow="tram rail_urban rail rail_electric rail_fast ship" speed="9.58" length="5.61" shape="661.80,610.64 660.78,611.98 659.90,612.87 659.32,613.82 659.19,615.37"/>
    </edge>
    <edge id=":279121821_1" function="internal">
        <lane id=":279121821_1_0" index="0" disallow="tram rail_urban rail rail_electric rail_fast ship" speed="27.78" length="5.48" shape="657.70,610.13 658.23,611.67 658.66,612.71 658.98,613.78 659.19,615.37"/>
    </edge>
    <edge id=":279121823_0" function="internal">
        <lane id=":279121823_0_0" index="0" allow="pedestrian delivery bicycle" speed="5.19" length="4.91" shape="656.36,637.88 655.33,637.04 654.26,636.70 653.14,636.84 651.97,637.48"/>
    </edge>
    <edge id=":279121823_1" function="internal">
        <lane id=":279121823_1_0" index="0" allow="pedestrian delivery bicycle" speed="3.65" length="4.67" shape="656.36,637.88 656.15,636.45 656.47,635.62 657.33,635.37 658.73,635.73"/>
    </edge>
    <edge id=":279121823_2" function="internal">
        <lane id=":279121823_2_0" index="0" allow="pedestrian delivery bicycle" speed="6.67" length="8.00" shape="656.01,628.75 655.58,630.06 655.88,631.65 656.93,633.55 658.73,635.73"/>
    </edge>
    <edge id=":279121823_3" function="internal">
        <lane id=":279121823_3_0" index="0" disallow="tram rail_urban rail rail_electric rail_fast ship" speed="27.31" length="8.63" shape="656.01,628.75 654.54,630.83 653.41,632.19 652.10,633.36 650.07,634.91"/>
    </edge>
    <edge id=":279121824_0" function="internal">
        <lane id=":279121824_0_0" index="0" disallow="tram rail_urban rail rail_electric rail_fast ship" speed="20.83" length="3.52" shape="643.74,641.20 640.39,642.27"/>
    </edge>
    <edge id=":279121824_1" function="internal">
        <lane id=":279121824_1_0" index="0" disallow="tram rail_urban rail rail_electric rail_fast ship" speed="16.38" length="3.52" shape="642.78,638.14 641.78,638.45 641.08,638.60 640.37,638.64 639.32,638.62"/>
    </edge>
    <edge id=":279124862_0" function="internal">
        <lane id=":279124862_0_0" index="0" disallow="tram rail_urban rail rail_electric rail_fast ship" speed="3.65" length="4.67" shape="602.21,432.19 603.63,432.39 604.34,432.93 604.33,433.83 603.60,435.07"/>
    </edge>
    <edge id=":279124946_0" function="internal">
        <lane id=":279124946_0_0" index="0" allow="bicycle" speed="10.73" length="5.12" width="1.00" shape="620.88,459.58 620.77,461.07 620.94,462.09 621.34,463.08 621.94,464.48"/>
    </edge>
    <edge id=":279124946_1" function="internal">
        <lane id=":279124946_1_0" index="0" disallow="tram rail_urban rail rail_electric rail_fast ship" speed="22.22" length="5.17" shape="619.79,459.43 619.16,464.56"/>
    </edge>
    <edge id=":279125001_0" function="internal">
        <lane id=":279125001_0_0" index="0" allow="bicycle" speed="8.33" length="4.70" shape="609.23,462.48 610.20,461.47 610.84,460.71 611.24,459.85 611.47,458.51"/>
    </edge>
    <edge id=":279125001_1" function="internal">
        <lane id=":279125001_1_0" index="0" disallow="tram rail_urban rail rail_electric rail_fast ship" speed="22.22" length="4.79" shape="612.03,463.37 612.56,458.61"/>
    </edge>
    <edge id=":279621331_0" function="internal">
        <lane id=":279621331_0_0" index="0" disallow="tram rail_urban rail rail_electric rail_fast ship" speed="6.35" length="8.76" shape="402.13,585.79 399.72,585.16 397.74,585.42 396.18,586.56 395.04,588.60"/>
    </edge>
    <edge id=":279621331_1" function="internal">
        <lane id=":279621331_1_0" index="0" disallow="tram rail_urban rail rail_electric rail_fast ship" speed="13.89" length="14.39" shape="402.13,585.79 388.84,580.26"/>
    </edge>
    <edge id=":279621331_2" function="internal">
        <lane id=":279621331_2_0" index="0" disallow="tram rail_urban rail rail_electric rail_fast ship" speed="3.65" length="2.34" shape="402.13,585.79 401.32,584.59 401.25,583.70"/>
    </edge>
    <edge id=":279621331_9" function="internal">
        <lane id=":279621331_9_0" index="0" disallow="tram rail_urban rail rail_electric rail_fast ship" speed="3.65" length="2.34" shape="401.25,583.70 401.93,583.11 403.34,582.83"/>
    </edge>
    <edge id=":279621331_3" function="internal">
        <lane id=":279621331_3_0" index="0" disallow="tram rail_urban rail rail_electric rail_fast ship" speed="13.89" length="14.37" shape="390.08,577.31 403.34,582.83"/>
    </edge>
    <edge id=":279621331_4" function="internal">
        <lane id=":279621331_4_0" index="0" disallow="tram rail_urban rail rail_electric rail_fast ship" speed="8.05" length="5.92" shape="390.08,577.31 393.37,579.27 394.63,580.94"/>
    </edge>
    <edge id=":279621331_5" function="internal">
        <lane id=":279621331_5_0" index="0" disallow="tram rail_urban rail rail_electric rail_fast ship" speed="3.65" length="2.34" shape="390.08,577.31 390.87,578.52 390.93,579.41"/>
    </edge>
    <edge id=":279621331_10" function="internal">
        <lane id=":279621331_10_0" index="0" disallow="tram rail_urban rail rail_electric rail_fast ship" speed="8.05" length="8.02" shape="394.63,580.94 395.29,581.81 395.85,584.92 395.04,588.60"/>
    </edge>
    <edge id=":279621331_11" function="internal">
        <lane id=":279621331_11_0" index="0" disallow="tram rail_urban rail rail_electric rail_fast ship" speed="3.65" length="2.34" shape="390.93,579.41 390.25,579.99 388.84,580.26"/>
    </edge>
    <edge id=":279621331_6" function="internal">
        <lane id=":279621331_6_0" index="0" disallow="tram rail_urban rail rail_electric rail_fast ship" speed="6.56" length="8.93" shape="392.04,587.48 392.55,585.13 392.19,583.14 390.95,581.52 388.84,580.26"/>
    </edge>
    <edge id=":279621331_7" function="internal">
        <lane id=":279621331_7_0" index="0" disallow="tram rail_urban rail rail_electric rail_fast ship" speed="7.87" length="14.03" shape="392.04,587.48 393.88,584.17 396.38,582.29 399.53,581.84 403.34,582.83"/>
    </edge>
    <edge id=":279621331_8" function="internal">
        <lane id=":279621331_8_0" index="0" disallow="tram rail_urban rail rail_electric rail_fast ship" speed="3.65" length="4.67" shape="392.04,587.48 393.21,586.64 394.10,586.54 394.71,587.20 395.04,588.60"/>
    </edge>
    <edge id=":279624354_0" function="internal">
        <lane id=":279624354_0_0" index="0" disallow="tram rail_urban rail rail_electric rail_fast ship" speed="8.33" length="5.65" shape="662.51,600.16 668.07,599.17"/>
    </edge>
    <edge id=":279624355_0" function="internal">
        <lane id=":279624355_0_0" index="0" disallow="tram rail_urban rail rail_electric rail_fast ship" speed="8.33" length="0.30" shape="692.36,599.64 692.27,599.64 692.21,599.64 692.14,599.65 692.06,599.66"/>
    </edge>
    <edge id=":279624355_1" function="internal">
        <lane id=":279624355_1_0" index="0" disallow="tram rail_urban rail rail_electric rail_fast ship" speed="8.33" length="0.90" shape="691.54,596.52 691.80,596.48 691.98,596.45 692.16,596.44 692.43,596.44"/>
    </edge>
    <edge id=":280470471_0" function="internal">
        <lane id=":280470471_0_0" index="0" allow="pedestrian delivery bicycle" speed="5.56" length="6.11" shape="662.68,644.20 661.31,643.01 660.40,642.17 659.53,641.28 658.29,639.95"/>
    </edge>
    <edge id=":280470471_1" function="internal">
        <lane id=":280470471_1_0" index="0" allow="pedestrian delivery bicycle" speed="3.65" length="2.34" shape="662.68,644.20 662.29,642.81 662.51,641.95"/>
    </edge>
    <edge id=":280470471_4" function="internal">
        <lane id=":280470471_4_0" index="0" allow="pedestrian delivery bicycle" speed="3.65" length="2.34" shape="662.51,641.95 663.34,641.60 664.77,641.78"/>
    </edge>
    <edge id=":280470471_2" function="internal">
        <lane id=":280470471_2_0" index="0" allow="pedestrian delivery bicycle" speed="5.56" length="5.76" shape="660.63,637.77 661.80,639.02 662.62,639.86 663.48,640.66 664.77,641.78"/>
    </edge>
    <edge id=":280470471_3" function="internal">
        <lane id=":280470471_3_0" index="0" allow="pedestrian delivery bicycle" speed="3.65" length="2.34" shape="660.63,637.77 660.87,639.20 660.55,640.03"/>
    </edge>
    <edge id=":280470471_5" function="internal">
        <lane id=":280470471_5_0" index="0" allow="pedestrian delivery bicycle" speed="3.65" length="2.34" shape="660.55,640.03 659.70,640.29 658.29,639.95"/>
    </edge>
    <edge id=":282721407_0" function="internal">
        <lane id=":282721407_0_0" index="0" disallow="tram rail_urban rail rail_electric rail_fast ship" speed="3.65" length="4.67" shape="1042.63,535.17 1043.28,536.46 1043.23,537.35 1042.49,537.85 1041.05,537.95"/>
    </edge>
    <edge id=":282721791_0" function="internal">
        <lane id=":282721791_0_0" index="0" disallow="tram rail_urban rail rail_electric rail_fast ship" speed="5.74" length="9.18" shape="795.97,398.24 793.45,397.23 791.59,397.44 790.40,398.88 789.88,401.56"/>
    </edge>
    <edge id=":282721791_1" function="internal">
        <lane id=":282721791_1_0" index="0" disallow="tram rail_urban rail rail_electric rail_fast ship" speed="13.89" length="18.33" shape="795.97,398.24 780.09,389.09"/>
    </edge>
    <edge id=":282721791_2" function="internal">
        <lane id=":282721791_2_0" index="0" disallow="tram rail_urban rail rail_electric rail_fast ship" speed="10.90" length="6.11" shape="795.97,398.24 792.79,395.52 791.71,393.94"/>
    </edge>
    <edge id=":282721791_3" function="internal">
        <lane id=":282721791_3_0" index="0" disallow="tram rail_urban rail rail_electric rail_fast ship" speed="3.65" length="2.34" shape="795.97,398.24 795.33,396.96 795.37,396.06"/>
    </edge>
    <edge id=":282721791_16" function="internal">
        <lane id=":282721791_16_0" index="0" disallow="tram rail_urban rail rail_electric rail_fast ship" speed="10.90" length="11.74" shape="791.71,393.94 790.12,391.61 788.34,387.23 787.83,383.08"/>
    </edge>
    <edge id=":282721791_17" function="internal">
        <lane id=":282721791_17_0" index="0" disallow="tram rail_urban rail rail_electric rail_fast ship" speed="3.65" length="2.34" shape="795.37,396.06 796.12,395.57 797.56,395.46"/>
    </edge>
    <edge id=":282721791_4" function="internal">
        <lane id=":282721791_4_0" index="0" disallow="tram rail_urban rail rail_electric rail_fast ship" speed="9.91" length="14.62" shape="791.02,383.29 791.22,387.10 792.38,390.40 794.49,393.19 797.56,395.46"/>
    </edge>
    <edge id=":282721791_5" function="internal">
        <lane id=":282721791_5_0" index="0" disallow="tram rail_urban rail rail_electric rail_fast ship" speed="13.89" length="18.30" shape="791.02,383.29 789.88,401.56"/>
    </edge>
    <edge id=":282721791_6" function="internal">
        <lane id=":282721791_6_0" index="0" disallow="tram rail_urban rail rail_electric rail_fast ship" speed="7.44" length="16.37" shape="791.02,383.29 790.04,388.04 787.89,390.59 784.57,390.94 780.09,389.09"/>
    </edge>
    <edge id=":282721791_7" function="internal">
        <lane id=":282721791_7_0" index="0" disallow="tram rail_urban rail rail_electric rail_fast ship" speed="3.65" length="4.67" shape="791.02,383.29 790.14,384.44 789.32,384.78 788.55,384.33 787.83,383.08"/>
    </edge>
    <edge id=":282721791_8" function="internal">
        <lane id=":282721791_8_0" index="0" disallow="tram rail_urban rail rail_electric rail_fast ship" speed="5.74" length="9.18" shape="781.70,386.33 784.21,387.36 786.07,387.17 787.28,385.74 787.83,383.08"/>
    </edge>
    <edge id=":282721791_9" function="internal">
        <lane id=":282721791_9_0" index="0" disallow="tram rail_urban rail rail_electric rail_fast ship" speed="13.89" length="18.30" shape="781.70,386.33 797.56,395.46"/>
    </edge>
    <edge id=":282721791_10" function="internal">
        <lane id=":282721791_10_0" index="0" disallow="tram rail_urban rail rail_electric rail_fast ship" speed="11.03" length="6.04" shape="781.70,386.33 784.87,389.07 785.91,390.60"/>
    </edge>
    <edge id=":282721791_11" function="internal">
        <lane id=":282721791_11_0" index="0" disallow="tram rail_urban rail rail_electric rail_fast ship" speed="3.65" length="2.34" shape="781.70,386.33 782.33,387.62 782.28,388.52"/>
    </edge>
    <edge id=":282721791_18" function="internal">
        <lane id=":282721791_18_0" index="0" disallow="tram rail_urban rail rail_electric rail_fast ship" speed="11.03" length="11.85" shape="785.91,390.60 787.54,393.00 789.34,397.40 789.88,401.56"/>
    </edge>
    <edge id=":282721791_19" function="internal">
        <lane id=":282721791_19_0" index="0" disallow="tram rail_urban rail rail_electric rail_fast ship" speed="3.65" length="2.34" shape="782.28,388.52 781.53,389.01 780.09,389.09"/>
    </edge>
    <edge id=":282721791_12" function="internal">
        <lane id=":282721791_12_0" index="0" disallow="tram rail_urban rail rail_electric rail_fast ship" speed="10.04" length="14.73" shape="786.69,401.37 786.45,397.54 785.27,394.22 783.15,391.40 780.09,389.09"/>
    </edge>
    <edge id=":282721791_13" function="internal">
        <lane id=":282721791_13_0" index="0" disallow="tram rail_urban rail rail_electric rail_fast ship" speed="13.89" length="18.34" shape="786.69,401.37 787.83,383.08"/>
    </edge>
    <edge id=":282721791_14" function="internal">
        <lane id=":282721791_14_0" index="0" disallow="tram rail_urban rail rail_electric rail_fast ship" speed="7.44" length="16.39" shape="786.69,401.37 787.62,396.61 789.74,394.03 793.05,393.65 797.56,395.46"/>
    </edge>
    <edge id=":282721791_15" function="internal">
        <lane id=":282721791_15_0" index="0" disallow="tram rail_urban rail rail_electric rail_fast ship" speed="3.65" length="4.67" shape="786.69,401.37 787.55,400.22 788.37,399.87 789.15,400.31 789.88,401.56"/>