<?xml version="1.0" encoding="UTF-8"?>
<!-- generated on 2021-12-15 16:36:33.390681 by $Id$ UNKNOWN
  options: -n map.net.xml -e 20 -o map.trips.mxl
-->
<routes xmlns:xsi="http://www.w3.org/2001/XMLSchema-instance" xsi:noNamespaceSchemaLocation="http://sumo.dlr.de/xsd/routes_file.xsd">
    <trip id="0" depart="0.00" from="25650647#8" to="-25608687#2"/>
    <trip id="1" depart="1.00" from="-268119088#2" to="-25917481#2"/>
    <trip id="2" depart="2.00" from="25917424#2" to="25651145#0"/>
    <trip id="3" depart="3.00" from="44540142#2" to="-25650647#13"/>
    <trip id="4" depart="4.00" from="25608514#3" to="-25608687#3"/>
    <trip id="5" depart="5.00" from="-25917481#2" to="25608801#4"/>
    <trip id="6" depart="6.00" from="-25608687#3" to="-25917424#2"/>
    <trip id="7" depart="7.00" from="25650647#9" to="25608820#4"/>
    <trip id="8" depart="8.00" from="-25917481#2" to="25650647#2"/>
    <trip id="9" depart="9.00" from="268119088#2" to="-25608687#0"/>
    <trip id="10" depart="10.00" from="268119088#1" to="25917424#1"/>
    <trip id="11" depart="11.00" from="-44540142#2" to="-25650654#2"/>
    <trip id="12" depart="12.00" from="865065167#3" to="-813984062"/>
    <trip id="13" depart="13.00" from="-25650647#13" to="-25650647#3"/>
    <trip id="14" depart="14.00" from="44104541#0" to="25650647#3"/>
    <trip id="15" depart="15.00" from="268119088#1" to="25917481#2"/>
    <trip id="16" depart="16.00" from="25608801#4" to="865065167#4"/>
    <trip id="17" depart="17.00" from="244558361#1" to="25608820#4"/>
    <trip id="18" depart="18.00" from="305951638#1" to="25650647#8"/>
    <trip id="19" depart="19.00" from="44104541#2" to="25650647#12"/>
</routes>
